Material: main / Hf / Lynch
Optical constants. D. W. Lynch, C. G. Olson, and J. H. Weaver. Optical properties of Ti, Zr, and Hf from 0.15 to 30 eV, Phys. Rev. B 11, 3617 (1975)(data points extracted from a figure)
wavelength (um)	n	k
0.078	0.954	0.411
0.078	0.957	0.418
0.079	0.945	0.44
0.079	0.941	0.448
0.08	0.942	0.465
0.08	0.942	0.471
0.081	0.942	0.489
0.081	0.942	0.496
0.082	0.94	0.516
0.082	0.939	0.524
0.083	0.94	0.543
0.083	0.94	0.55
0.084	0.945	0.566
0.084	0.946	0.571
0.085	0.947	0.584
0.085	0.948	0.589
0.086	0.956	0.6
0.086	0.959	0.605
0.087	0.966	0.618
0.087	0.968	0.622
0.088	0.972	0.632
0.089	0.974	0.637
0.089	0.981	0.649
0.09	0.983	0.653
0.091	0.99	0.664
0.091	0.993	0.669
0.092	1.001	0.682
0.092	1.004	0.686
0.093	1.014	0.697
0.094	1.018	0.7
0.095	1.026	0.711
0.095	1.028	0.713
0.096	1.034	0.721
0.096	1.036	0.723
0.097	1.044	0.727
0.098	1.048	0.729
0.099	1.058	0.733
0.099	1.062	0.736
0.1	1.073	0.741
0.101	1.077	0.744
0.102	1.093	0.75
0.102	1.098	0.751
0.103	1.112	0.752
0.104	1.117	0.753
0.105	1.132	0.754
0.105	1.137	0.755
0.107	1.152	0.756
0.107	1.158	0.757
0.108	1.173	0.759
0.109	1.179	0.76
0.11	1.194	0.763
0.111	1.2	0.763
0.112	1.215	0.765
0.112	1.221	0.767
0.114	1.237	0.77
0.114	1.243	0.771
0.116	1.259	0.774
0.116	1.264	0.774
0.118	1.277	0.773
0.118	1.281	0.773
0.12	1.295	0.771
0.121	1.3	0.768
0.122	1.312	0.761
0.123	1.316	0.759
0.124	1.332	0.752
0.125	1.338	0.748
0.127	1.352	0.739
0.127	1.357	0.734
0.129	1.369	0.721
0.13	1.374	0.716
0.132	1.383	0.703
0.133	1.386	0.698
0.134	1.394	0.685
0.135	1.397	0.68
0.137	1.404	0.666
0.138	1.407	0.662
0.14	1.416	0.651
0.141	1.419	0.645
0.143	1.424	0.631
0.144	1.426	0.625
0.146	1.424	0.612
0.148	1.422	0.603
0.15	1.417	0.594
0.15	1.414	0.589
0.153	1.406	0.574
0.153	1.406	0.574
0.155	1.396	0.557
0.157	1.39	0.548
0.159	1.381	0.533
0.16	1.374	0.523
0.163	1.362	0.51
0.164	1.357	0.507
0.167	1.339	0.493
0.168	1.329	0.49
0.171	1.309	0.486
0.173	1.291	0.484
0.175	1.272	0.484
0.177	1.242	0.486
0.178	1.234	0.488
0.182	1.201	0.501
0.182	1.198	0.502
0.185	1.175	0.525
0.187	1.152	0.545
0.19	1.123	0.574
0.193	1.103	0.597
0.196	1.079	0.627
0.198	1.06	0.653
0.202	1.037	0.683
0.204	1.021	0.707
0.208	1.006	0.74
0.211	0.996	0.767
0.215	0.986	0.802
0.218	0.981	0.828
0.222	0.976	0.861
0.225	0.974	0.885
0.229	0.971	0.913
0.233	0.967	0.937
0.238	0.959	0.965
0.241	0.947	0.992
0.246	0.938	1.027
0.25	0.921	1.07
0.253	0.915	1.1
0.26	0.898	1.169
0.26	0.898	1.171
0.267	0.889	1.241
0.271	0.885	1.279
0.274	0.887	1.317
0.281	0.89	1.377
0.282	0.893	1.395
0.289	0.901	1.458
0.29	0.902	1.467
0.296	0.916	1.533
0.297	0.917	1.536
0.304	0.935	1.597
0.305	0.94	1.61
0.311	0.958	1.66
0.314	0.967	1.684
0.319	0.98	1.717
0.323	0.995	1.752
0.326	1.002	1.769
0.333	1.024	1.82
0.334	1.026	1.824
0.34	1.049	1.868
0.345	1.063	1.898
0.347	1.071	1.915
0.356	1.095	1.968
0.356	1.097	1.971
0.36	1.121	1.999
0.369	1.146	2.045
0.369	1.147	2.048
0.376	1.172	2.082
0.382	1.197	2.113
0.385	1.211	2.129
0.388	1.226	2.144
0.394	1.258	2.173
0.401	1.293	2.204
0.406	1.312	2.224
0.408	1.321	2.23
0.416	1.364	2.257
0.421	1.403	2.281
0.428	1.44	2.306
0.432	1.463	2.321
0.434	1.477	2.328
0.44	1.508	2.345
0.445	1.542	2.365
0.453	1.577	2.384
0.458	1.611	2.404
0.462	1.63	2.415
0.465	1.642	2.425
0.469	1.669	2.447
0.475	1.697	2.47
0.478	1.722	2.49
0.483	1.75	2.513
0.488	1.778	2.535
0.491	1.816	2.564
0.496	1.837	2.582
0.498	1.843	2.587
0.501	1.874	2.61
0.507	1.905	2.634
0.511	1.938	2.659
0.517	1.968	2.682
0.522	2.001	2.707
0.522	2.026	2.725
0.53	2.056	2.749
0.536	2.079	2.767
0.537	2.081	2.77
0.545	2.111	2.775
0.552	2.147	2.789
0.561	2.187	2.803
0.574	2.252	2.812
0.587	2.314	2.823
0.602	2.378	2.833
0.616	2.436	2.844
0.618	2.46	2.83
0.623	2.459	2.853
0.623	2.459	2.854
0.634	2.493	2.849
0.638	2.506	2.846
0.649	2.542	2.832
0.653	2.558	2.824
0.665	2.595	2.794
0.67	2.607	2.785
0.682	2.64	2.755
0.687	2.649	2.748
0.7	2.672	2.723
0.705	2.677	2.718
0.719	2.698	2.708
0.724	2.701	2.71
0.739	2.701	2.707
0.744	2.698	2.709
0.76	2.69	2.714
0.765	2.687	2.716
0.782	2.682	2.726
0.788	2.681	2.729
0.806	2.695	2.751
0.812	2.695	2.763
0.83	2.704	2.802
0.837	2.702	2.825
0.857	2.706	2.891
0.864	2.711	2.91
0.886	2.73	2.967
0.893	2.736	2.986
0.916	2.759	3.048
0.924	2.768	3.066
0.949	2.806	3.129
0.957	2.822	3.146
0.984	2.877	3.204
0.993	2.897	3.22
1.021	2.963	3.272
1.029	2.982	3.284
1.062	3.065	3.338
1.067	3.078	3.345
1.103	3.164	3.396
1.106	3.173	3.401
1.134	3.257	3.433
1.154	3.312	3.455
1.168	3.346	3.476
1.205	3.429	3.529
1.209	3.438	3.533
1.255	3.544	3.573
1.262	3.559	3.579
1.3	3.656	3.592
1.319	3.705	3.601
1.344	3.78	3.6
1.365	3.836	3.596
1.402	3.945	3.578
1.408	3.956	3.569
1.438	4.028	3.51
1.471	4.093	3.459
1.476	4.103	3.451
1.512	4.14	3.363
1.542	4.165	3.297
1.556	4.17	3.257
1.588	4.169	3.178
1.616	4.148	3.083
1.618	4.145	3.077
1.646	4.097	3.002
1.688	4.045	2.914
1.71	4.017	2.866
1.733	3.964	2.833
1.778	3.855	2.76
1.799	3.804	2.723
1.823	3.714	2.702
1.848	3.626	2.683
1.866	3.556	2.677
1.886	3.475	2.67
1.908	3.376	2.669
1.923	3.306	2.66
1.946	3.188	2.651
1.961	3.126	2.662
2.002	2.955	2.698
2.007	2.931	2.704
2.038	2.831	2.772
2.075	2.689	2.887
2.118	2.537	3.021
2.13	2.498	3.056
2.167	2.418	3.187
2.212	2.329	3.345
2.24	2.255	3.477
2.266	2.186	3.609
2.279	2.117	3.737
2.29	2.068	3.852
2.293	2.138	3.73
2.32	2.036	3.982
2.342	1.99	4.124
2.377	1.959	4.272
2.399	1.955	4.329
2.416	1.966	4.377
2.437	1.962	4.468
2.48	2.001	4.55
2.508	2.026	4.602
2.577	2.096	4.697
2.618	2.057	4.715
2.649	2.026	4.736
2.728	1.914	4.772
2.799	1.798	4.862
2.805	1.775	4.864
2.824	1.666	4.954
2.833	1.618	5.002
2.844	1.59	5.072
2.862	1.552	5.163
2.866	1.598	5.009
2.954	1.442	5.396
2.954	1.421	5.477
2.97	1.393	5.556
2.985	1.369	5.628
2.993	1.357	5.665
3.009	1.341	5.745
3.032	1.321	5.852
3.048	1.306	5.934
3.059	1.286	6.037
3.088	1.244	6.265
3.09	1.266	6.159
3.153	1.238	6.347
3.183	1.225	6.443
3.197	1.214	6.512
3.218	1.201	6.6
3.246	1.193	6.666
3.26	1.197	6.7
3.273	1.189	6.798
3.292	1.189	6.868
3.311	1.19	6.935
3.362	1.211	7.008
3.368	1.213	7.017
3.408	1.225	7.094
3.408	1.214	7.163
3.449	1.226	7.234
3.469	1.228	7.3
3.491	1.225	7.389
3.498	1.227	7.406
3.544	1.239	7.505
3.566	1.238	7.596
3.627	1.263	7.66
3.657	1.273	7.69
3.691	1.276	7.779
